LAMMPS (12 Dec 2018)
# Created by charmm2lammps v1.9.2 on Wed Jul  1 20:30:05 EDT 2020
# Command: charmm2lammps.pl hap HAP_19301 -charmm

units           real
dimension	3
processors	*	*	*
boundary	p	p	p
neigh_modify    delay 2 every 1

atom_style      full
bond_style      harmonic
angle_style     charmm
pair_style      lj/charmm/coul/long 8 12
pair_modify     mix arithmetic
kspace_style    pppm 1e-6

read_data       HAP_1930.data
  orthogonal box = (-4.712 -15 0) to (5.206 163.323 206.35)
  reading atoms ...
  23760 atoms
  scanning bonds ...
  scanning angles ...
  reading bonds ...
  14040 bonds
  reading angles ...
  19440 angles

special_bonds   charmm
timestep        1.0

minimize 0.0 0.0 500 2000
PPPM initialization ...
  G vector (1/distance) = 0.296571
  grid = 27 216 240
  stencil order = 5
  estimated absolute RMS force accuracy = 0.000395569
  estimated relative force accuracy = 1.19125e-06
  3d grid and FFT values/proc = 40052 17496
  update every 1 steps, delay 0 steps, check yes
Step Temp E_pair E_mol TotEng Press
0            0   -4351849.6    2360315.6     -1991534   -30123.884
Loop time of 1.53815 on 80 procs for 19 steps with 23760 atoms

Minimization stats:
  Stopping criterion = linesearch alpha is zero
  Energy initial, next-to-last, final =
  Force two-norm initial, final = 5815.96 2350.97
  Force max component initial, final = 116.524 96.3047
  Final line search alpha, max atom move = 3.32057e-15 3.19787e-13
  Iterations, force evaluations = 19 104

#------------------------------------
# Initial cell length for strain calculations
variable tmpz equal "lz"
variable Lz0 equal 206.35
Initial Length, Lz0: 206.35

variable hin equal bound(all,ymax)
variable fro equal bound(all,ymin)
variable tLy0 equal "v_hin-v_fro"
variable Ly0 equal 147.683355302819

variable wallh equal "v_hin-4"
variable wallf equal "v_fro+4"
region hind block INF INF 144.007547032267 INF INF INF
region fron block INF INF INF 4.32419172944809 INF INF
group hind region hind
540 atoms in group hind
group fron region fron
536 atoms in group fron
group surface union hind fron
1076 atoms in group surface

compute 	peatom all pe/atom
compute 	keatom all ke/atom
compute		statom all stress/atom NULL
dump            1 all custom 500 dump.HAP1930 id type x y z c_peatom c_keatom c_statom[1] c_statom[2] c_statom[3] c_statom[4] c_statom[5] c_statom[6]

# 1 bar = 1/10000 GPa
variable strain equal "(lz - v_Lz0)/v_Lz0"
variable sx equal "-pxx/10000"
variable sy equal "-pyy/10000"
variable sz equal "-pzz/10000"

thermo          500
thermo_style    custom step v_strain v_sx v_sy v_sz lx ly lz pe ke etotal press temp

#-----------------Equilibration--------------
reset_timestep  0
velocity        all create 300.0 1234567 dist uniform
velocity	surface set 0 0 0

fix             1 all npt temp 300 300 10 iso 1 1 1000
run             5000
PPPM initialization ...
  G vector (1/distance) = 0.296571
  grid = 27 216 240
  stencil order = 5
  estimated absolute RMS force accuracy = 0.000395569
  estimated relative force accuracy = 1.19125e-06
  3d grid and FFT values/proc = 40052 17496
Step v_strain v_sx v_sy v_sz Lx Ly Lz PotEng KinEng TotEng Press Temp
0            0    9.8594726    4.8941592    1.1315725        9.918      178.323       206.35   -2039276.9    20262.988   -2019013.9   -52950.681    286.11526
Averages over the last 6 of 11 rows, steps 2500 to 5000:
v_strain v_sx v_sy v_sz Lx Ly Lz PotEng KinEng TotEng Press Temp
-0.0161106 7.40432 0.23654 -7.59517 9.75822 175.45 203.026 -2.04471e+06 21283.6 -2.02343e+06 -152.296 300.526
Loop time of 84.4258 on 80 procs for 5000 steps with 23760 atoms

unfix 		1

fix             1 all npt temp 300 300 10 x 1 1000 1000 y 1 1 1000 z 1 1 1000
run             5000
PPPM initialization ...
  G vector (1/distance) = 0.297361
  grid = 27 216 240
  stencil order = 5
  estimated absolute RMS force accuracy = 0.000378619
  estimated relative force accuracy = 1.1402e-06
  3d grid and FFT values/proc = 40052 17496
Step v_strain v_sx v_sy v_sz Lx Ly Lz PotEng KinEng TotEng Press Temp
5000 -0.016934977     7.379507   0.43334309   -7.7640864    9.7500389     175.3031    202.85547     -2044914    21474.451   -2023439.6   -162.54544    303.22124
Averages over the last 6 of 11 rows, steps 7500 to 10000:
v_strain v_sx v_sy v_sz Lx Ly Lz PotEng KinEng TotEng Press Temp
0.0244469 -0.048906 -0.0449325 -0.0133654 9.23299 180.433 211.395 -2.06483e+06 21223.4 -2.04361e+06 357.346 299.677
Loop time of 81.8575 on 80 procs for 5000 steps with 23760 atoms

unfix 		1

fix             1 all npt temp 300 300 10 x 1000 1 1000 y 1 1 1000 z 1 1 1000
run             5000
PPPM initialization ...
  G vector (1/distance) = 0.29672
  grid = 27 216 240
  stencil order = 5
  estimated absolute RMS force accuracy = 0.000396143
  estimated relative force accuracy = 1.19297e-06
  3d grid and FFT values/proc = 40052 17496
Step v_strain v_sx v_sy v_sz Lx Ly Lz PotEng KinEng TotEng Press Temp
10000  0.024381421  -0.05253837 -0.080554628 -0.032389091    9.2314055    182.00102    211.38111   -2064619.8    21203.942   -2043415.9    551.60696    299.40162
Averages over the last 6 of 11 rows, steps 12500 to 15000:
v_strain v_sx v_sy v_sz Lx Ly Lz PotEng KinEng TotEng Press Temp
0.0244429 -0.0011558 0.00526949 0.0119758 9.23393 186.318 211.394 -2.06483e+06 21219.3 -2.04361e+06 -53.6318 299.619
Loop time of 88.7728 on 80 procs for 5000 steps with 23760 atoms

unfix 		1

fix             1 all npt temp 300 300 10 x 1 1 1000 y 1 1 1000 z 1 1 1000
run             5000
PPPM initialization ...
  G vector (1/distance) = 0.296114
  grid = 27 216 240
  stencil order = 5
  estimated absolute RMS force accuracy = 0.000411147
  estimated relative force accuracy = 1.23816e-06
  3d grid and FFT values/proc = 40052 17496
Step v_strain v_sx v_sy v_sz Lx Ly Lz PotEng KinEng TotEng Press Temp
15000  0.024155586 -0.077601031 -0.00023312305 -0.035120753       9.2322      187.855    211.33451   -2064888.3     21276.73   -2043611.6    376.51636    300.42939
Averages over the last 6 of 11 rows, steps 17500 to 20000:
v_strain v_sx v_sy v_sz Lx Ly Lz PotEng KinEng TotEng Press Temp
0.0243374 0.00520529 0.00757016 -0.0336167 9.2349 192.007 211.372 -2.06481e+06 21227.6 -2.04358e+06 69.471 299.736
Loop time of 81.3285 on 80 procs for 5000 steps with 23760 atoms

unfix 		1

group Notch id 10297 10306 10304 12675 12678 12677 11090 10347 10303 11178 11134 12718 12762 11931 11887 12674 11093 11094 11182 11091 11181 11179 11138 11137 11135 11934 11932 11925 11978 11888 11969 11890 11976 11881 11092 11097 11180 11268 11185 11136 11141 11224 11229 12021 11933 12016 11928 11977 12060 11972 11889 11884 11089 11184 11272 11177 11265 11098 11096 11274 11186 11133 11140 11228 11309 11221 11142 11230 12015 11927 11929 12018 11930 12105 12017 11971 12059 11973 12061 11883 12062 11974 11886 11885 11271 11882 11183 11095 11139 11227 11315 11970 12058 12146 11926 12102 12014 10331 10332 10333 10335 10311 10314 10315 10334 11108 11109 11110 11111 11112 11116 11117 11118 11119 11120 11121 11122 11123 11124 11125 11126 11127 11128 11129 11130 11131 11132 10312 10313 11103 11104 11105 11106 11107 11113 11114 11115 11152 11153 11154 11155 11156 11162 11163 11164 11165 11166 11167 11168 11169 11170 11171 11172 11173 11174 11175 11176 11147 11148 11149 11150 11151 11157 11158 11159 11160 11161 11196 11198 11199 11200 11206 11207 11208 11209 11210 11211 11213 11214 11215 11216 11217 11218 11219 11220 11197 11191 11192 11193 11194 11195 11201 11202 11203 11204 11205 11212 11250 11251 11252 11253 11254 11255 11257 11258 11259 11260 11261 11262 11263 11264 11900 11901 11902 11903 11904 11908 11909 11910 11911 11912 11913 11914 11915 11916 11917 11918 11919 11920 11921 11922 11923 11924 12695 12700 12706 12692 12693 12702 12703 12696 11895 11896 11897 11898 11899 11905 11906 11907 11944 11945 11946 11947 11948 11954 11955 11956 11957 11958 11959 11960 11961 11962 11963 11964 11965 11966 11967 11968 12750 12697 12698 12746 12747 12748 12699 11939 11940 11941 11942 11943 11949 11950 11951 11952 11953 11988 11990 11991 11992 11998 11999 12000 12001 12002 12003 12005 12006 12007 12008 12009 12010 12011 12012 11989 11983 11984 11985 11986 11987 11993 11994 11995 11996 11997 12004 12032 12036 12042 12043 12044 12045 12046 12052 12053 12054 12055 12056 12694 12701 12704 12705 12749 11235 11236 11237 11238 11239 11256 11301 11302 11303 11304 11305 11306 11307 11308 11279 11280 11281 11282 11283 11299 11300 11348 11349 11350 11351 11352 12033 12034 12035 12037 12038 12039 12040 12041 12080 12086 12087 12088 12089 12090 12076 12077 12078 12079 12081 12082 12083 12084 12085 12130 12131 12132 12133 12134 10307 10308 11099 11100 11101 11102 11143 11144 11145 11146 11187 11188 11189 11190 11231 11232 11891 11892 11893 11894 11935 11936 11937 11938 12729 12730 11979 11980 11981 11982 12023 12024 12025 12026 11275 11276 12069 12070 12113 12114
427 atoms in group Notch
delete_atoms group Notch bond yes mol yes
Deleted 427 atoms, new total = 23333
Deleted 252 bonds, new total = 13788
Deleted 348 angles, new total = 19092

write_restart   restart.HAP1930eq0
PPPM initialization ...
  G vector (1/distance) = 0.296334
  grid = 27 225 240
  stencil order = 5
  estimated absolute RMS force accuracy = 0.000392723
  estimated relative force accuracy = 1.18267e-06
  3d grid and FFT values/proc = 42408 18792
write_data      dat.HAP1930eq0
PPPM initialization ...
  G vector (1/distance) = 0.296334
  grid = 27 225 240
  stencil order = 5
  estimated absolute RMS force accuracy = 0.000392723
  estimated relative force accuracy = 1.18267e-06
  3d grid and FFT values/proc = 42408 18792

#------------------------Deformation---------------
reset_timestep 	0
velocity 	surface set 0 0 0
fix		1 fron setforce NULL 0 NULL
fix 		2 all nvt temp 300 300 10

#Break 1
fix 		3 all deform 1 z erate 0.000005 units box remap x #1 m/s
restart 	8000 restart.HAPtenz
run             40000 #
PPPM initialization ...
  G vector (1/distance) = 0.296334
  grid = 27 225 240
  stencil order = 5
  estimated absolute RMS force accuracy = 0.000392723
  estimated relative force accuracy = 1.18267e-06
  3d grid and FFT values/proc = 42408 18792
Step v_strain v_sx v_sy v_sz Lx Ly Lz PotEng KinEng TotEng Press Temp
0  0.024546793  0.052263815  0.023192928   0.10259481    9.2367534    193.36558    211.41523   -2020932.7     19872.73     -2001060   -593.50519    285.74014
Averages over the last 41 of 81 rows, steps 20000 to 40000:
v_strain v_sx v_sy v_sz Lx Ly Lz PotEng KinEng TotEng Press Temp
0.178229 0.0550411 0.0692166 0.0472757 9.23675 193.366 243.128 -2.01956e+06 20879 -1.99868e+06 -571.778 300.208
Loop time of 721.434 on 80 procs for 40000 steps with 23333 atoms

write_data	dat.HAPtenz40000 #
PPPM initialization ...
  G vector (1/distance) = 0.295114
  grid = 27 225 270
  stencil order = 5
  estimated absolute RMS force accuracy = 0.000396904
  estimated relative force accuracy = 1.19527e-06
  3d grid and FFT values/proc = 46512 24300
unfix 		3

variable srate equal "-0.2/1.2/40000"
fix 		3 all deform 1 z erate -4.16666666666667e-06 units box remap x
restart 	8000 restart.HAPcomp
run             40000 #
PPPM initialization ...
  G vector (1/distance) = 0.295114
  grid = 27 225 270
  stencil order = 5
  estimated absolute RMS force accuracy = 0.000396904
  estimated relative force accuracy = 1.19527e-06
  3d grid and FFT values/proc = 46512 24300
Step v_strain v_sx v_sy v_sz Lx Ly Lz PotEng KinEng TotEng Press Temp
40000   0.22945615   0.20042801   0.66510401   -0.1066988    9.2367534    193.36558    253.69828   -2019978.6    20738.719   -1999239.9   -2529.4441    298.19178
Averages over the last 41 of 81 rows, steps 60000 to 80000:
v_strain v_sx v_sy v_sz Lx Ly Lz PotEng KinEng TotEng Press Temp
0.0757741 0.0328746 -0.0128586 0.0490879 9.23675 193.366 221.986 -2.02027e+06 20868.1 -1.99941e+06 -230.346 300.053
Loop time of 819.879 on 80 procs for 40000 steps with 23333 atoms

write_data	dat.HAPcomp40000 #
PPPM initialization ...
  G vector (1/distance) = 0.296334
  grid = 27 225 240
  stencil order = 5
  estimated absolute RMS force accuracy = 0.000392723
  estimated relative force accuracy = 1.18267e-06
  3d grid and FFT values/proc = 42408 18792
unfix 		3
unfix 		2

#Sinter 1
fix 		2 all npt temp 300 300 10 z 1 6513.69 1000
run 10000
PPPM initialization ...
  G vector (1/distance) = 0.296334
  grid = 27 225 240
  stencil order = 5
  estimated absolute RMS force accuracy = 0.000392723
  estimated relative force accuracy = 1.18267e-06
  3d grid and FFT values/proc = 42408 18792
Step v_strain v_sx v_sy v_sz Lx Ly Lz PotEng KinEng TotEng Press Temp
80000  0.024546793  -0.32521353  -0.78248372  -0.29318253    9.2367534    193.36558    211.41523   -2022863.3    21042.514   -2001820.8    4669.5993    302.55989
Averages over the last 11 of 21 rows, steps 85000 to 90000:
v_strain v_sx v_sy v_sz Lx Ly Lz PotEng KinEng TotEng Press Temp
0.0236693 -0.136127 -0.091392 -0.486001 9.23675 193.366 211.234 -2.02322e+06 20854.1 -2.00236e+06 2378.4 299.851
Loop time of 183.255 on 80 procs for 10000 steps with 23333 atoms

unfix 2
write_restart	restart.HAP1930sint11
PPPM initialization ...
  G vector (1/distance) = 0.296431
  grid = 27 225 240
  stencil order = 5
  estimated absolute RMS force accuracy = 0.000390415
  estimated relative force accuracy = 1.17572e-06
  3d grid and FFT values/proc = 42408 18792

fix 		2 all npt temp 300 300 10 z 6513.69 6513.69 1000
run 10000
PPPM initialization ...
  G vector (1/distance) = 0.296431
  grid = 27 225 240
  stencil order = 5
  estimated absolute RMS force accuracy = 0.000390415
  estimated relative force accuracy = 1.17572e-06
  3d grid and FFT values/proc = 42408 18792
Step v_strain v_sx v_sy v_sz Lx Ly Lz PotEng KinEng TotEng Press Temp
90000  0.019109403   0.30682123    1.1269808  -0.72781023    9.2367534    193.36558    210.29323   -2022980.9    20828.811   -2002152.1    -2353.306    299.48717
Averages over the last 11 of 21 rows, steps 95000 to 100000:
v_strain v_sx v_sy v_sz Lx Ly Lz PotEng KinEng TotEng Press Temp
0.0226996 -0.102844 0.0198952 -0.652343 9.23675 193.366 211.034 -2.02322e+06 20871.7 -2.00234e+06 2450.97 300.104
Loop time of 178.634 on 80 procs for 10000 steps with 23333 atoms

unfix 2
write_restart	restart.HAP1930sint12
PPPM initialization ...
  G vector (1/distance) = 0.296355
  grid = 27 225 240
  stencil order = 5
  estimated absolute RMS force accuracy = 0.000392232
  estimated relative force accuracy = 1.1812e-06
  3d grid and FFT values/proc = 42408 18792

fix 		2 all npt temp 300 300 10 z 6513.69 1 1000
run 10000
PPPM initialization ...
  G vector (1/distance) = 0.296355
  grid = 27 225 240
  stencil order = 5
  estimated absolute RMS force accuracy = 0.000392232
  estimated relative force accuracy = 1.1812e-06
  3d grid and FFT values/proc = 42408 18792
Step v_strain v_sx v_sy v_sz Lx Ly Lz PotEng KinEng TotEng Press Temp
100000  0.023407159   -0.2910102  -0.41026221  -0.62063761    9.2367534    193.36558    211.18007   -2023290.5    20778.884   -2002511.6    4406.3667    298.76929
Averages over the last 11 of 21 rows, steps 105000 to 110000:
v_strain v_sx v_sy v_sz Lx Ly Lz PotEng KinEng TotEng Press Temp
0.02448 0.0167068 0.0981526 -0.150094 9.23675 193.366 211.401 -2.02322e+06 20833.7 -2.00238e+06 117.447 299.557
Loop time of 179.725 on 80 procs for 10000 steps with 23333 atoms

unfix 2
write_restart	restart.HAP1930sint13
PPPM initialization ...
  G vector (1/distance) = 0.296331
  grid = 27 225 240
  stencil order = 5
  estimated absolute RMS force accuracy = 0.000392808
  estimated relative force accuracy = 1.18293e-06
  3d grid and FFT values/proc = 42408 18792

fix 		2 all npt temp 300 300 10 z 1 1 1000
run 10000
PPPM initialization ...
  G vector (1/distance) = 0.296331
  grid = 27 225 240
  stencil order = 5
  estimated absolute RMS force accuracy = 0.000392808
  estimated relative force accuracy = 1.18293e-06
  3d grid and FFT values/proc = 42408 18792
Step v_strain v_sx v_sy v_sz Lx Ly Lz PotEng KinEng TotEng Press Temp
110000  0.024744189  0.080539995   0.11084041  0.095349088    9.2367534    193.36558    211.45596   -2023595.5    20712.305   -2002883.2   -955.76497    297.81198
Averages over the last 11 of 21 rows, steps 115000 to 120000:
v_strain v_sx v_sy v_sz Lx Ly Lz PotEng KinEng TotEng Press Temp
0.025288 -0.0230895 -0.109376 -0.00193972 9.23675 193.366 211.568 -2.0233e+06 20855.9 -2.00245e+06 448.017 299.877
Loop time of 182.937 on 80 procs for 10000 steps with 23333 atoms

unfix 2
write_restart	restart.HAP1930eq1
PPPM initialization ...
  G vector (1/distance) = 0.296372
  grid = 27 225 240
  stencil order = 5
  estimated absolute RMS force accuracy = 0.000391826
  estimated relative force accuracy = 1.17997e-06
  3d grid and FFT values/proc = 42408 18792
write_data	dat.HAP1930eq1
PPPM initialization ...
  G vector (1/distance) = 0.296372
  grid = 27 225 240
  stencil order = 5
  estimated absolute RMS force accuracy = 0.000391826
  estimated relative force accuracy = 1.17997e-06
  3d grid and FFT values/proc = 42408 18792

#Break 2
fix             2 all nvt temp 300 300 10
fix 		3 all deform 1 z erate 0.000005 units box remap x #1 m/s
restart 	8000 restart.HAPtenz2
run             40000 #
PPPM initialization ...
  G vector (1/distance) = 0.296372
  grid = 27 225 240
  stencil order = 5
  estimated absolute RMS force accuracy = 0.000391826
  estimated relative force accuracy = 1.17997e-06
  3d grid and FFT values/proc = 42408 18792
Step v_strain v_sx v_sy v_sz Lx Ly Lz PotEng KinEng TotEng Press Temp
120000  0.022455866   0.21270181   0.67258836 -0.065740488    9.2367534    193.36558    210.98377   -2023046.9    20818.578   -2002228.3   -2731.8323    299.34003
Averages over the last 41 of 81 rows, steps 140000 to 160000:
v_strain v_sx v_sy v_sz Lx Ly Lz PotEng KinEng TotEng Press Temp
0.175824 0.0911533 0.0270618 0.0808287 9.23675 193.366 242.631 -2.01768e+06 20810.1 -1.99687e+06 -663.479 299.218
Loop time of 741.178 on 80 procs for 40000 steps with 23333 atoms

write_data	dat.HAPtenz40000_2 #
PPPM initialization ...
  G vector (1/distance) = 0.295155
  grid = 27 225 270
  stencil order = 5
  estimated absolute RMS force accuracy = 0.000395855
  estimated relative force accuracy = 1.1921e-06
  3d grid and FFT values/proc = 46512 24300
unfix 		3

variable srate equal "-0.2/1.2/40000"
fix 		3 all deform 1 z erate -4.16666666666667e-06 units box remap x
restart 	8000 restart.HAPcomp2
run             40000 #
PPPM initialization ...
  G vector (1/distance) = 0.295155
  grid = 27 225 270
  stencil order = 5
  estimated absolute RMS force accuracy = 0.000395855
  estimated relative force accuracy = 1.1921e-06
  3d grid and FFT values/proc = 46512 24300
Step v_strain v_sx v_sy v_sz Lx Ly Lz PotEng KinEng TotEng Press Temp
160000   0.22694704  0.059092785   0.14437012  -0.29937736    9.2367534    193.36558    253.18052   -2017895.3    20744.802   -1997150.5    319.71483    298.27924
Averages over the last 41 of 81 rows, steps 180000 to 200000:
v_strain v_sx v_sy v_sz Lx Ly Lz PotEng KinEng TotEng Press Temp
0.0735787 0.0305173 -0.0172193 -0.11289 9.23675 193.366 221.533 -2.01872e+06 20871 -1.99785e+06 331.972 300.093
Loop time of 807.504 on 80 procs for 40000 steps with 23333 atoms

write_data	dat.HAPcomp40000_2 #
PPPM initialization ...
  G vector (1/distance) = 0.296372
  grid = 27 225 240
  stencil order = 5
  estimated absolute RMS force accuracy = 0.000391826
  estimated relative force accuracy = 1.17997e-06
  3d grid and FFT values/proc = 42408 18792
unfix 		3
unfix 		2

#Sinter 2
fix 		2 all npt temp 300 300 10 z 1 6513.69 1000
run 10000
PPPM initialization ...
  G vector (1/distance) = 0.296372
  grid = 27 225 240
  stencil order = 5
  estimated absolute RMS force accuracy = 0.000391826
  estimated relative force accuracy = 1.17997e-06
  3d grid and FFT values/proc = 42408 18792
Step v_strain v_sx v_sy v_sz Lx Ly Lz PotEng KinEng TotEng Press Temp
200000  0.022455866  -0.42965583  -0.47371968   -1.3087752    9.2367534    193.36558    210.98377   -2020817.4    20909.322   -1999908.1    7373.8359    300.64479
Averages over the last 11 of 21 rows, steps 205000 to 210000:
v_strain v_sx v_sy v_sz Lx Ly Lz PotEng KinEng TotEng Press Temp
0.0259893 -0.0901994 -0.0153809 -0.492775 9.23675 193.366 211.713 -2.0213e+06 20830 -2.00047e+06 1994.52 299.505
Loop time of 172.938 on 80 procs for 10000 steps with 23333 atoms

unfix 2
write_restart	restart.HAP1930sint21
PPPM initialization ...
  G vector (1/distance) = 0.296349
  grid = 27 225 240
  stencil order = 5
  estimated absolute RMS force accuracy = 0.00039236
  estimated relative force accuracy = 1.18158e-06
  3d grid and FFT values/proc = 42408 18792

fix 		2 all npt temp 300 300 10 z 6513.69 6513.69 1000
run 10000
PPPM initialization ...
  G vector (1/distance) = 0.296349
  grid = 27 225 240
  stencil order = 5
  estimated absolute RMS force accuracy = 0.00039236
  estimated relative force accuracy = 1.18158e-06
  3d grid and FFT values/proc = 42408 18792
Step v_strain v_sx v_sy v_sz Lx Ly Lz PotEng KinEng TotEng Press Temp
210000  0.023705092 -0.023999721   0.24714744  -0.75766302    9.2367534    193.36558    211.24155   -2021154.5    20750.316   -2000404.1    1781.7177    298.35851
Averages over the last 11 of 21 rows, steps 215000 to 220000:
v_strain v_sx v_sy v_sz Lx Ly Lz PotEng KinEng TotEng Press Temp
0.0250817 -0.0949357 0.0205389 -0.648638 9.23675 193.366 211.526 -2.02137e+06 20890.7 -2.00048e+06 2410.12 300.377
Loop time of 172.509 on 80 procs for 10000 steps with 23333 atoms

unfix 2
write_restart	restart.HAP1930sint22
PPPM initialization ...
  G vector (1/distance) = 0.296323
  grid = 27 225 240
  stencil order = 5
  estimated absolute RMS force accuracy = 0.000392993
  estimated relative force accuracy = 1.18349e-06
  3d grid and FFT values/proc = 42408 18792

fix 		2 all npt temp 300 300 10 z 6513.69 1 1000
run 10000
PPPM initialization ...
  G vector (1/distance) = 0.296323
  grid = 27 225 240
  stencil order = 5
  estimated absolute RMS force accuracy = 0.000392993
  estimated relative force accuracy = 1.18349e-06
  3d grid and FFT values/proc = 42408 18792
Step v_strain v_sx v_sy v_sz Lx Ly Lz PotEng KinEng TotEng Press Temp
220000  0.025172186  -0.12600873  -0.15862468   -0.7206449    9.2367534    193.36558    211.54428   -2021322.4    20728.379     -2000594    3350.9277    298.04309
Averages over the last 11 of 21 rows, steps 225000 to 230000:
v_strain v_sx v_sy v_sz Lx Ly Lz PotEng KinEng TotEng Press Temp
0.0275915 0.00282411 0.0400833 -0.149511 9.23675 193.366 212.043 -2.02131e+06 20860.7 -2.00045e+06 355.345 299.946
Loop time of 172.864 on 80 procs for 10000 steps with 23333 atoms

unfix 2
write_restart	restart.HAP1930sint23
PPPM initialization ...
  G vector (1/distance) = 0.29627
  grid = 27 225 240
  stencil order = 5
  estimated absolute RMS force accuracy = 0.000394268
  estimated relative force accuracy = 1.18733e-06
  3d grid and FFT values/proc = 42408 18792

fix 		2 all npt temp 300 300 10 z 1 1 1000
run 10000
PPPM initialization ...
  G vector (1/distance) = 0.29627
  grid = 27 225 240
  stencil order = 5
  estimated absolute RMS force accuracy = 0.000394268
  estimated relative force accuracy = 1.18733e-06
  3d grid and FFT values/proc = 42408 18792
Step v_strain v_sx v_sy v_sz Lx Ly Lz PotEng KinEng TotEng Press Temp
230000  0.028089218  0.070009997 0.0016437144   0.10460589    9.2367534    193.36558    212.14621   -2021225.5    20975.185   -2000250.3   -587.53201     301.5918
Averages over the last 11 of 21 rows, steps 235000 to 240000:
v_strain v_sx v_sy v_sz Lx Ly Lz PotEng KinEng TotEng Press Temp
0.0284042 0.00452481 -0.0103308 -0.00477673 9.23675 193.366 212.211 -2.0214e+06 20836.8 -2.00056e+06 35.2757 299.603
Loop time of 164.368 on 80 procs for 10000 steps with 23333 atoms

unfix 2
write_restart	restart.HAP1930eq2
PPPM initialization ...
  G vector (1/distance) = 0.296284
  grid = 27 225 240
  stencil order = 5
  estimated absolute RMS force accuracy = 0.000393936
  estimated relative force accuracy = 1.18633e-06
  3d grid and FFT values/proc = 42408 18792
write_data	dat.HAP1930eq2
PPPM initialization ...
  G vector (1/distance) = 0.296284
  grid = 27 225 240
  stencil order = 5
  estimated absolute RMS force accuracy = 0.000393936
  estimated relative force accuracy = 1.18633e-06
  3d grid and FFT values/proc = 42408 18792
