LAMMPS (12 Dec 2018)
# ------------------------ Initialization ----------------------
clear
units 		metal
dimension	3
processors	*	*	*
boundary	p	p	p

atom_style	full

# input coordinate data and potential
read_data 	dat.water
  orthogonal box = (-0.0548121 -0.328873 -1.1876) to (9.35481 56.1289 202.688)
  reading atoms ...
  10530 atoms
  reading velocities ...
  10530 velocities
  scanning bonds ...
  scanning angles ...
  reading bonds ...
  7020 bonds
  reading angles ...
  3510 angles
include		pot.CaCO3_raiteri
# 1 Ca, 2 C, 3 O, 4 Ow, 5 H

#pair_style buck/coul/long 9 #9 A cut off
#pair_coeff * * 0		1		0		#default just coul
#pair_coeff 1 3 3161.6335	0.271511	0 		#Ca-O
#pair_coeff 1 2 120000000	0.12		0		#Ca-C
#pair_coeff 3 3 63840.199	0.198913	27.899008	#O-O
#pair_coeff 3 4 12534.455133	0.215172	12.090225	#O-Ow
#pair_coeff 3 5 396.320957	0.230006	0		#O-H
#pair_coeff 1 4 1186.492877	0.297		0		#Ca-H
pair_style lj/cut/coul/cut 10.0
pair_modify tail yes
#kspace_style pppm 1.0e-5

pair_coeff 1 1 0.00000 0.000
pair_coeff 1 2 0.00000 0.000
pair_coeff 2 2 0.15535 3.166

#kspace_style	pppm 1.0e-5

bond_style	harmonic
#bond_coeff	1 20.424650 1.3042000	#C-O
bond_coeff	1 22.965000 1.0120000	#Ow-H

angle_style 	hybrid class2 harmonic
#angle_coeff	1 class2    120.00000 6.6170000 0.0000000 0.0000000
#angle_coeff	1 class2 bb 12.818000 1.3042000 1.3042000
#angle_coeff	1 class2 ba 1.5331900 1.5331900 1.3042000 1.3042000
angle_coeff	1 harmonic  1.6456800 113.24000 #water

#improper_style 	distance
#improper_coeff 	1 13.647000 360.00000

neighbor        2.0 bin
neigh_modify    every 1 delay 1 check yes one 4000

#Raiteri P, et al. Derivation of an accurate force-field for simulating the growth of calcium carbonate from aqueous solution: A new model for the calciteâˆ’ Water interface. The Journal of Physical Chemistry C 2010, 114.13: 5997-6010 (Pair_styles)

#Raiteri P, Demichelis R, Gale JD. Thermodynamically consistent force field for molecular dynamics simulations of alkaline-earth carbonates and their aqueous speciation. The Journal of Physical Chemistry C 2015, 119(43): 24447-24458 (Else)

#replicate	3 3 3

group		Ow type 1
7020 atoms in group Ow
group		H type 2
3510 atoms in group H

timestep	0.001
#minimize 	0.0 0.0 50000 200000

#------------------------------------------
# Initial cell length for strain calculations
variable tmpz equal "lz"
variable Lz0 equal 203.875191369682
Initial Length, Lz0: 203.875191369682

variable hin equal bound(all,ymax)
variable fro equal bound(all,ymin)
variable tLy0 equal "v_hin-v_fro"
variable Ly0 equal 56.4359384200485

variable wallh equal "v_hin-12"
variable wallf equal "v_fro+12"
region hind block INF INF 44.1156763144708 INF INF INF
region fron block INF INF INF 11.6797378944223 INF INF
group hind region hind
2270 atoms in group hind
group fron region fron
2247 atoms in group fron
group surface union hind fron
4517 atoms in group surface
#group surf_rig subtract surface O

compute 	peatom all pe/atom
compute 	keatom all ke/atom
compute		statom all stress/atom NULL
dump            1 all custom 500 dump.water id type x y z c_peatom c_keatom c_statom[1] c_statom[2] c_statom[3] c_statom[4] c_statom[5] c_statom[6]

# 1 bar = 1/10000 GPa
variable strain equal "(lz - v_Lz0)/v_Lz0"
variable sx equal "-pxx/10000"
variable sy equal "-pyy/10000"
variable sz equal "-pzz/10000"

thermo          50
thermo_style    custom step v_strain v_sx v_sy v_sz lx ly lz pe ke etotal press temp

# ------------------------- Equilibration-------------------------
reset_timestep	0
velocity        all create 300.0 1234568 dist uniform

#fix constrain all shake 1.0e-4 100 0 b 1 a 1
fix integrate all npt temp 300 300 0.2 iso 1 1 2
fix removeMomentum all momentum 1 linear 1 1 1
run 5000
  update every 1 steps, delay 1 steps, check yes
Step v_strain v_sx v_sy v_sz Lx Ly Lz PotEng KinEng TotEng Press Temp
0 -1.6728887e-15   -75.428267   -72.187447    -71.17648    9.4096242    56.457745    203.87519    4939.0177    408.29402    5347.3118    729307.31          300
Averages over the last 51 of 101 rows, steps 2500 to 5000:
v_strain v_sx v_sy v_sz Lx Ly Lz PotEng KinEng TotEng Press Temp
0.0144 -0.496018 0.344885 0.197859 9.54512 57.2707 206.811 -2247.3 408.277 -1839.02 -155.755 299.987
Loop time of 16.1772 on 80 procs for 5000 steps with 10530 atoms

#unfix integrate
#fix integrate all npt temp 10 25 0.2 x 1 1 2 y 5 5 2 z 1 1 2
#run 10000

#unfix integrate
#fix integrate all npt temp 25 25 0.2 iso 1 1 2
#run 10000

#unfix integrate
#fix integrate all npt temp 25 100 0.2 iso 1 1 2
#run 10000

#unfix integrate
#fix integrate all npt temp 100 125 0.2 x 1 1 2 y 5 5 2 z 1 1 2
#run 10000

#unfix integrate
#fix integrate all npt temp 125 125 0.2 iso 1 1 2
#run 20000

#unfix integrate
#fix integrate all npt temp 125 130 0.2 iso 1 1 2 #x 5 5 2 y 1 1 2 z 1 1 2
#run 20000

#unfix integrate
#fix integrate all npt temp 130 150 0.2 iso 1 1 2
#run 10000

#unfix integrate
#fix integrate all npt temp 150 200 0.2 iso 1 1 2
#run 10000

#unfix integrate
#fix integrate all npt temp 200 200 0.2 iso 1 1 2
#run 10000

#unfix integrate
#fix integrate all npt temp 200 250 0.2 iso 1 1 2
#run 10000

#unfix integrate
#fix integrate all npt temp 250 250 0.2 iso 1 1 2
#run 10000

#unfix integrate
#fix integrate all npt temp 250 300 0.02 iso 1 1 2
#run 10000

##fix             1 H nvt temp 10 10 2 #iso 1 1 2
#run             30
#unfix 		1

#fix             1 Ow nvt temp 10 300 2 #iso 1 1 2
#run             300
#unfix           1

#fix             1 H nvt temp 10 300 2 #iso 1 1 2
#fix		2 Ow nvt temp 300 300 2
#run             300
#unfix           1

#unfix 0

#fix             1 all npt temp 300 300 0.2 x 1 1000 2 y 1 1 2 z 1 1 2
#run             5000
#unfix 		1

#fix             1 all npt temp 300 300 0.2 x 1000 1 2 y 1 1 2 z 1 1 2
#run             5000
#unfix 		1

#fix             1 all npt temp 300 300 0.2 x 1 1 2 y 1 1 2 z 1 1 2
#run             5000
#unfix 		1

write_restart	restart.water
write_data	dat.water_eq
